<?xml version="1.0" encoding="UTF-8" standalone="yes"?>
<template encoding-version="1.3">
    <description></description>
    <groupId>03be1f4d-35fc-15e5-a588-00f9d057a66c</groupId>
    <name>AUD_to_USD_Conversion_Flow</name>
    <snippet>
        <connections>
            <id>11cb7075-6bb1-3568-0000-000000000000</id>
            <parentGroupId>6666688b-99e8-3cf5-0000-000000000000</parentGroupId>
            <backPressureDataSizeThreshold>1 GB</backPressureDataSizeThreshold>
            <backPressureObjectThreshold>10000</backPressureObjectThreshold>
            <destination>
                <groupId>6666688b-99e8-3cf5-0000-000000000000</groupId>
                <id>f4f49dd2-82da-3a94-0000-000000000000</id>
                <type>PROCESSOR</type>
            </destination>
            <flowFileExpiration>1 sec</flowFileExpiration>
            <labelIndex>1</labelIndex>
            <loadBalanceCompression>DO_NOT_COMPRESS</loadBalanceCompression>
            <loadBalancePartitionAttribute></loadBalancePartitionAttribute>
            <loadBalanceStatus>LOAD_BALANCE_NOT_CONFIGURED</loadBalanceStatus>
            <loadBalanceStrategy>DO_NOT_LOAD_BALANCE</loadBalanceStrategy>
            <name></name>
            <selectedRelationships>success</selectedRelationships>
            <source>
                <groupId>6666688b-99e8-3cf5-0000-000000000000</groupId>
                <id>d6554d72-e7ff-3623-0000-000000000000</id>
                <type>PROCESSOR</type>
            </source>
            <zIndex>0</zIndex>
        </connections>
        <connections>
            <id>12184a34-898b-3541-0000-000000000000</id>
            <parentGroupId>6666688b-99e8-3cf5-0000-000000000000</parentGroupId>
            <backPressureDataSizeThreshold>1 GB</backPressureDataSizeThreshold>
            <backPressureObjectThreshold>10000</backPressureObjectThreshold>
            <bends>
                <x>489.06298828125</x>
                <y>580.0889892578125</y>
            </bends>
            <destination>
                <groupId>6666688b-99e8-3cf5-0000-000000000000</groupId>
                <id>f4f49dd2-82da-3a94-0000-000000000000</id>
                <type>PROCESSOR</type>
            </destination>
            <flowFileExpiration>0 sec</flowFileExpiration>
            <labelIndex>1</labelIndex>
            <loadBalanceCompression>DO_NOT_COMPRESS</loadBalanceCompression>
            <loadBalancePartitionAttribute></loadBalancePartitionAttribute>
            <loadBalanceStatus>LOAD_BALANCE_NOT_CONFIGURED</loadBalanceStatus>
            <loadBalanceStrategy>DO_NOT_LOAD_BALANCE</loadBalanceStrategy>
            <name></name>
            <selectedRelationships>failure</selectedRelationships>
            <source>
                <groupId>6666688b-99e8-3cf5-0000-000000000000</groupId>
                <id>d6554d72-e7ff-3623-0000-000000000000</id>
                <type>PROCESSOR</type>
            </source>
            <zIndex>0</zIndex>
        </connections>
        <connections>
            <id>59f56653-7fd3-3dbd-0000-000000000000</id>
            <parentGroupId>6666688b-99e8-3cf5-0000-000000000000</parentGroupId>
            <backPressureDataSizeThreshold>1 GB</backPressureDataSizeThreshold>
            <backPressureObjectThreshold>10000</backPressureObjectThreshold>
            <destination>
                <groupId>6666688b-99e8-3cf5-0000-000000000000</groupId>
                <id>5eaee5ad-2618-300b-0000-000000000000</id>
                <type>PROCESSOR</type>
            </destination>
            <flowFileExpiration>0 sec</flowFileExpiration>
            <labelIndex>1</labelIndex>
            <loadBalanceCompression>DO_NOT_COMPRESS</loadBalanceCompression>
            <loadBalancePartitionAttribute></loadBalancePartitionAttribute>
            <loadBalanceStatus>LOAD_BALANCE_NOT_CONFIGURED</loadBalanceStatus>
            <loadBalanceStrategy>DO_NOT_LOAD_BALANCE</loadBalanceStrategy>
            <name></name>
            <selectedRelationships>Response</selectedRelationships>
            <source>
                <groupId>6666688b-99e8-3cf5-0000-000000000000</groupId>
                <id>35c86d98-bb2e-33f8-0000-000000000000</id>
                <type>PROCESSOR</type>
            </source>
            <zIndex>0</zIndex>
        </connections>
        <connections>
            <id>73791f21-0189-37fc-0000-000000000000</id>
            <parentGroupId>6666688b-99e8-3cf5-0000-000000000000</parentGroupId>
            <backPressureDataSizeThreshold>1 GB</backPressureDataSizeThreshold>
            <backPressureObjectThreshold>10000</backPressureObjectThreshold>
            <destination>
                <groupId>6666688b-99e8-3cf5-0000-000000000000</groupId>
                <id>d6554d72-e7ff-3623-0000-000000000000</id>
                <type>PROCESSOR</type>
            </destination>
            <flowFileExpiration>0 sec</flowFileExpiration>
            <labelIndex>1</labelIndex>
            <loadBalanceCompression>DO_NOT_COMPRESS</loadBalanceCompression>
            <loadBalancePartitionAttribute></loadBalancePartitionAttribute>
            <loadBalanceStatus>LOAD_BALANCE_NOT_CONFIGURED</loadBalanceStatus>
            <loadBalanceStrategy>DO_NOT_LOAD_BALANCE</loadBalanceStrategy>
            <name></name>
            <selectedRelationships>matched</selectedRelationships>
            <source>
                <groupId>6666688b-99e8-3cf5-0000-000000000000</groupId>
                <id>5eaee5ad-2618-300b-0000-000000000000</id>
                <type>PROCESSOR</type>
            </source>
            <zIndex>0</zIndex>
        </connections>
        <connections>
            <id>cdd64870-42a6-3158-0000-000000000000</id>
            <parentGroupId>6666688b-99e8-3cf5-0000-000000000000</parentGroupId>
            <backPressureDataSizeThreshold>1 GB</backPressureDataSizeThreshold>
            <backPressureObjectThreshold>10000</backPressureObjectThreshold>
            <bends>
                <x>481.06298828125</x>
                <y>397.0889892578125</y>
            </bends>
            <destination>
                <groupId>6666688b-99e8-3cf5-0000-000000000000</groupId>
                <id>f4f49dd2-82da-3a94-0000-000000000000</id>
                <type>PROCESSOR</type>
            </destination>
            <flowFileExpiration>0 sec</flowFileExpiration>
            <labelIndex>1</labelIndex>
            <loadBalanceCompression>DO_NOT_COMPRESS</loadBalanceCompression>
            <loadBalancePartitionAttribute></loadBalancePartitionAttribute>
            <loadBalanceStatus>LOAD_BALANCE_NOT_CONFIGURED</loadBalanceStatus>
            <loadBalanceStrategy>DO_NOT_LOAD_BALANCE</loadBalanceStrategy>
            <name></name>
            <selectedRelationships>retry</selectedRelationships>
            <source>
                <groupId>6666688b-99e8-3cf5-0000-000000000000</groupId>
                <id>d6554d72-e7ff-3623-0000-000000000000</id>
                <type>PROCESSOR</type>
            </source>
            <zIndex>0</zIndex>
        </connections>
        <controllerServices>
            <id>0068a072-a491-32e0-0000-000000000000</id>
            <parentGroupId>6666688b-99e8-3cf5-0000-000000000000</parentGroupId>
            <bundle>
                <artifact>nifi-dbcp-service-nar</artifact>
                <group>org.apache.nifi</group>
                <version>1.10.0</version>
            </bundle>
            <comments></comments>
            <descriptors>
                <entry>
                    <key>Database Connection URL</key>
                    <value>
                        <name>Database Connection URL</name>
                    </value>
                </entry>
                <entry>
                    <key>Database Driver Class Name</key>
                    <value>
                        <name>Database Driver Class Name</name>
                    </value>
                </entry>
                <entry>
                    <key>database-driver-locations</key>
                    <value>
                        <name>database-driver-locations</name>
                    </value>
                </entry>
                <entry>
                    <key>kerberos-credentials-service</key>
                    <value>
                        <identifiesControllerService>org.apache.nifi.kerberos.KerberosCredentialsService</identifiesControllerService>
                        <name>kerberos-credentials-service</name>
                    </value>
                </entry>
                <entry>
                    <key>Database User</key>
                    <value>
                        <name>Database User</name>
                    </value>
                </entry>
                <entry>
                    <key>Password</key>
                    <value>
                        <name>Password</name>
                    </value>
                </entry>
                <entry>
                    <key>Max Wait Time</key>
                    <value>
                        <name>Max Wait Time</name>
                    </value>
                </entry>
                <entry>
                    <key>Max Total Connections</key>
                    <value>
                        <name>Max Total Connections</name>
                    </value>
                </entry>
                <entry>
                    <key>Validation-query</key>
                    <value>
                        <name>Validation-query</name>
                    </value>
                </entry>
                <entry>
                    <key>dbcp-min-idle-conns</key>
                    <value>
                        <name>dbcp-min-idle-conns</name>
                    </value>
                </entry>
                <entry>
                    <key>dbcp-max-idle-conns</key>
                    <value>
                        <name>dbcp-max-idle-conns</name>
                    </value>
                </entry>
                <entry>
                    <key>dbcp-max-conn-lifetime</key>
                    <value>
                        <name>dbcp-max-conn-lifetime</name>
                    </value>
                </entry>
                <entry>
                    <key>dbcp-time-between-eviction-runs</key>
                    <value>
                        <name>dbcp-time-between-eviction-runs</name>
                    </value>
                </entry>
                <entry>
                    <key>dbcp-min-evictable-idle-time</key>
                    <value>
                        <name>dbcp-min-evictable-idle-time</name>
                    </value>
                </entry>
                <entry>
                    <key>dbcp-soft-min-evictable-idle-time</key>
                    <value>
                        <name>dbcp-soft-min-evictable-idle-time</name>
                    </value>
                </entry>
            </descriptors>
            <name>MariaDB</name>
            <persistsState>false</persistsState>
            <properties>
                <entry>
                    <key>Database Connection URL</key>
                    <value>jdbc:mariadb://localhost:3306/aws</value>
                </entry>
                <entry>
                    <key>Database Driver Class Name</key>
                    <value>org.mariadb.jdbc.Driver</value>
                </entry>
                <entry>
                    <key>database-driver-locations</key>
                    <value>/opt/nifi-1.9.2/external_libs/mariadb-java-client-2.2.0.jar</value>
                </entry>
                <entry>
                    <key>kerberos-credentials-service</key>
                </entry>
                <entry>
                    <key>Database User</key>
                    <value>root</value>
                </entry>
                <entry>
                    <key>Password</key>
                </entry>
                <entry>
                    <key>Max Wait Time</key>
                    <value>500 millis</value>
                </entry>
                <entry>
                    <key>Max Total Connections</key>
                    <value>8</value>
                </entry>
                <entry>
                    <key>Validation-query</key>
                    <value>select 1;</value>
                </entry>
                <entry>
                    <key>dbcp-min-idle-conns</key>
                    <value>0</value>
                </entry>
                <entry>
                    <key>dbcp-max-idle-conns</key>
                    <value>8</value>
                </entry>
                <entry>
                    <key>dbcp-max-conn-lifetime</key>
                    <value>-1</value>
                </entry>
                <entry>
                    <key>dbcp-time-between-eviction-runs</key>
                    <value>-1</value>
                </entry>
                <entry>
                    <key>dbcp-min-evictable-idle-time</key>
                    <value>30 mins</value>
                </entry>
                <entry>
                    <key>dbcp-soft-min-evictable-idle-time</key>
                    <value>-1</value>
                </entry>
            </properties>
            <state>ENABLED</state>
            <type>org.apache.nifi.dbcp.DBCPConnectionPool</type>
        </controllerServices>
        <processors>
            <id>35c86d98-bb2e-33f8-0000-000000000000</id>
            <parentGroupId>6666688b-99e8-3cf5-0000-000000000000</parentGroupId>
            <position>
                <x>0.844482421875</x>
                <y>0.0</y>
            </position>
            <bundle>
                <artifact>nifi-standard-nar</artifact>
                <group>org.apache.nifi</group>
                <version>1.10.0</version>
            </bundle>
            <config>
                <bulletinLevel>ERROR</bulletinLevel>
                <comments></comments>
                <concurrentlySchedulableTaskCount>1</concurrentlySchedulableTaskCount>
                <descriptors>
                    <entry>
                        <key>HTTP Method</key>
                        <value>
                            <name>HTTP Method</name>
                        </value>
                    </entry>
                    <entry>
                        <key>Remote URL</key>
                        <value>
                            <name>Remote URL</name>
                        </value>
                    </entry>
                    <entry>
                        <key>SSL Context Service</key>
                        <value>
                            <identifiesControllerService>org.apache.nifi.ssl.SSLContextService</identifiesControllerService>
                            <name>SSL Context Service</name>
                        </value>
                    </entry>
                    <entry>
                        <key>Connection Timeout</key>
                        <value>
                            <name>Connection Timeout</name>
                        </value>
                    </entry>
                    <entry>
                        <key>Read Timeout</key>
                        <value>
                            <name>Read Timeout</name>
                        </value>
                    </entry>
                    <entry>
                        <key>Include Date Header</key>
                        <value>
                            <name>Include Date Header</name>
                        </value>
                    </entry>
                    <entry>
                        <key>Follow Redirects</key>
                        <value>
                            <name>Follow Redirects</name>
                        </value>
                    </entry>
                    <entry>
                        <key>Attributes to Send</key>
                        <value>
                            <name>Attributes to Send</name>
                        </value>
                    </entry>
                    <entry>
                        <key>Basic Authentication Username</key>
                        <value>
                            <name>Basic Authentication Username</name>
                        </value>
                    </entry>
                    <entry>
                        <key>Basic Authentication Password</key>
                        <value>
                            <name>Basic Authentication Password</name>
                        </value>
                    </entry>
                    <entry>
                        <key>proxy-configuration-service</key>
                        <value>
                            <identifiesControllerService>org.apache.nifi.proxy.ProxyConfigurationService</identifiesControllerService>
                            <name>proxy-configuration-service</name>
                        </value>
                    </entry>
                    <entry>
                        <key>Proxy Host</key>
                        <value>
                            <name>Proxy Host</name>
                        </value>
                    </entry>
                    <entry>
                        <key>Proxy Port</key>
                        <value>
                            <name>Proxy Port</name>
                        </value>
                    </entry>
                    <entry>
                        <key>Proxy Type</key>
                        <value>
                            <name>Proxy Type</name>
                        </value>
                    </entry>
                    <entry>
                        <key>invokehttp-proxy-user</key>
                        <value>
                            <name>invokehttp-proxy-user</name>
                        </value>
                    </entry>
                    <entry>
                        <key>invokehttp-proxy-password</key>
                        <value>
                            <name>invokehttp-proxy-password</name>
                        </value>
                    </entry>
                    <entry>
                        <key>Put Response Body In Attribute</key>
                        <value>
                            <name>Put Response Body In Attribute</name>
                        </value>
                    </entry>
                    <entry>
                        <key>Max Length To Put In Attribute</key>
                        <value>
                            <name>Max Length To Put In Attribute</name>
                        </value>
                    </entry>
                    <entry>
                        <key>Digest Authentication</key>
                        <value>
                            <name>Digest Authentication</name>
                        </value>
                    </entry>
                    <entry>
                        <key>Always Output Response</key>
                        <value>
                            <name>Always Output Response</name>
                        </value>
                    </entry>
                    <entry>
                        <key>Add Response Headers to Request</key>
                        <value>
                            <name>Add Response Headers to Request</name>
                        </value>
                    </entry>
                    <entry>
                        <key>Content-Type</key>
                        <value>
                            <name>Content-Type</name>
                        </value>
                    </entry>
                    <entry>
                        <key>send-message-body</key>
                        <value>
                            <name>send-message-body</name>
                        </value>
                    </entry>
                    <entry>
                        <key>Use Chunked Encoding</key>
                        <value>
                            <name>Use Chunked Encoding</name>
                        </value>
                    </entry>
                    <entry>
                        <key>Penalize on "No Retry"</key>
                        <value>
                            <name>Penalize on "No Retry"</name>
                        </value>
                    </entry>
                    <entry>
                        <key>use-etag</key>
                        <value>
                            <name>use-etag</name>
                        </value>
                    </entry>
                    <entry>
                        <key>etag-max-cache-size</key>
                        <value>
                            <name>etag-max-cache-size</name>
                        </value>
                    </entry>
                </descriptors>
                <executionNode>ALL</executionNode>
                <lossTolerant>false</lossTolerant>
                <penaltyDuration>30 sec</penaltyDuration>
                <properties>
                    <entry>
                        <key>HTTP Method</key>
                        <value>GET</value>
                    </entry>
                    <entry>
                        <key>Remote URL</key>
                        <value>http://free.currencyconverterapi.com/api/v5/convert?q=USD_AUD&amp;compact=y</value>
                    </entry>
                    <entry>
                        <key>SSL Context Service</key>
                    </entry>
                    <entry>
                        <key>Connection Timeout</key>
                        <value>5 secs</value>
                    </entry>
                    <entry>
                        <key>Read Timeout</key>
                        <value>15 secs</value>
                    </entry>
                    <entry>
                        <key>Include Date Header</key>
                        <value>True</value>
                    </entry>
                    <entry>
                        <key>Follow Redirects</key>
                        <value>True</value>
                    </entry>
                    <entry>
                        <key>Attributes to Send</key>
                    </entry>
                    <entry>
                        <key>Basic Authentication Username</key>
                    </entry>
                    <entry>
                        <key>Basic Authentication Password</key>
                    </entry>
                    <entry>
                        <key>proxy-configuration-service</key>
                    </entry>
                    <entry>
                        <key>Proxy Host</key>
                    </entry>
                    <entry>
                        <key>Proxy Port</key>
                    </entry>
                    <entry>
                        <key>Proxy Type</key>
                        <value>http</value>
                    </entry>
                    <entry>
                        <key>invokehttp-proxy-user</key>
                    </entry>
                    <entry>
                        <key>invokehttp-proxy-password</key>
                    </entry>
                    <entry>
                        <key>Put Response Body In Attribute</key>
                    </entry>
                    <entry>
                        <key>Max Length To Put In Attribute</key>
                        <value>256</value>
                    </entry>
                    <entry>
                        <key>Digest Authentication</key>
                        <value>false</value>
                    </entry>
                    <entry>
                        <key>Always Output Response</key>
                        <value>false</value>
                    </entry>
                    <entry>
                        <key>Add Response Headers to Request</key>
                        <value>false</value>
                    </entry>
                    <entry>
                        <key>Content-Type</key>
                        <value>${mime.type}</value>
                    </entry>
                    <entry>
                        <key>send-message-body</key>
                        <value>true</value>
                    </entry>
                    <entry>
                        <key>Use Chunked Encoding</key>
                        <value>false</value>
                    </entry>
                    <entry>
                        <key>Penalize on "No Retry"</key>
                        <value>false</value>
                    </entry>
                    <entry>
                        <key>use-etag</key>
                        <value>false</value>
                    </entry>
                    <entry>
                        <key>etag-max-cache-size</key>
                        <value>10MB</value>
                    </entry>
                </properties>
                <runDurationMillis>0</runDurationMillis>
                <schedulingPeriod>84000 sec</schedulingPeriod>
                <schedulingStrategy>TIMER_DRIVEN</schedulingStrategy>
                <yieldDuration>1 sec</yieldDuration>
            </config>
            <executionNodeRestricted>false</executionNodeRestricted>
            <name>InvokeHTTP RestApi Daily</name>
            <relationships>
                <autoTerminate>true</autoTerminate>
                <name>Failure</name>
            </relationships>
            <relationships>
                <autoTerminate>true</autoTerminate>
                <name>No Retry</name>
            </relationships>
            <relationships>
                <autoTerminate>true</autoTerminate>
                <name>Original</name>
            </relationships>
            <relationships>
                <autoTerminate>false</autoTerminate>
                <name>Response</name>
            </relationships>
            <relationships>
                <autoTerminate>true</autoTerminate>
                <name>Retry</name>
            </relationships>
            <state>STOPPED</state>
            <style/>
            <type>org.apache.nifi.processors.standard.InvokeHTTP</type>
        </processors>
        <processors>
            <id>5eaee5ad-2618-300b-0000-000000000000</id>
            <parentGroupId>6666688b-99e8-3cf5-0000-000000000000</parentGroupId>
            <position>
                <x>0.0</x>
                <y>213.18521118164062</y>
            </position>
            <bundle>
                <artifact>nifi-standard-nar</artifact>
                <group>org.apache.nifi</group>
                <version>1.10.0</version>
            </bundle>
            <config>
                <bulletinLevel>ERROR</bulletinLevel>
                <comments></comments>
                <concurrentlySchedulableTaskCount>1</concurrentlySchedulableTaskCount>
                <descriptors>
                    <entry>
                        <key>Destination</key>
                        <value>
                            <name>Destination</name>
                        </value>
                    </entry>
                    <entry>
                        <key>Return Type</key>
                        <value>
                            <name>Return Type</name>
                        </value>
                    </entry>
                    <entry>
                        <key>Path Not Found Behavior</key>
                        <value>
                            <name>Path Not Found Behavior</name>
                        </value>
                    </entry>
                    <entry>
                        <key>Null Value Representation</key>
                        <value>
                            <name>Null Value Representation</name>
                        </value>
                    </entry>
                    <entry>
                        <key>USD_AUD_Rate</key>
                        <value>
                            <name>USD_AUD_Rate</name>
                        </value>
                    </entry>
                </descriptors>
                <executionNode>ALL</executionNode>
                <lossTolerant>false</lossTolerant>
                <penaltyDuration>30 sec</penaltyDuration>
                <properties>
                    <entry>
                        <key>Destination</key>
                        <value>flowfile-attribute</value>
                    </entry>
                    <entry>
                        <key>Return Type</key>
                        <value>json</value>
                    </entry>
                    <entry>
                        <key>Path Not Found Behavior</key>
                        <value>ignore</value>
                    </entry>
                    <entry>
                        <key>Null Value Representation</key>
                        <value>empty string</value>
                    </entry>
                    <entry>
                        <key>USD_AUD_Rate</key>
                        <value>$.USD_AUD.val</value>
                    </entry>
                </properties>
                <runDurationMillis>0</runDurationMillis>
                <schedulingPeriod>0 sec</schedulingPeriod>
                <schedulingStrategy>TIMER_DRIVEN</schedulingStrategy>
                <yieldDuration>1 sec</yieldDuration>
            </config>
            <executionNodeRestricted>false</executionNodeRestricted>
            <name>EvaluateJsonPath</name>
            <relationships>
                <autoTerminate>true</autoTerminate>
                <name>failure</name>
            </relationships>
            <relationships>
                <autoTerminate>false</autoTerminate>
                <name>matched</name>
            </relationships>
            <relationships>
                <autoTerminate>true</autoTerminate>
                <name>unmatched</name>
            </relationships>
            <state>STOPPED</state>
            <style/>
            <type>org.apache.nifi.processors.standard.EvaluateJsonPath</type>
        </processors>
        <processors>